Version 4
SHEET 1 880 680
WIRE -208 -528 -368 -528
WIRE 0 -528 -208 -528
WIRE 144 -528 0 -528
WIRE 144 -512 144 -528
WIRE -848 -448 -880 -448
WIRE -816 -448 -848 -448
WIRE -608 -448 -736 -448
WIRE -368 -448 -448 -448
WIRE -208 -432 -208 -528
WIRE 144 -384 144 -432
WIRE -880 -368 -880 -448
WIRE -608 -368 -688 -368
WIRE -336 -368 -448 -368
WIRE -256 -368 -336 -368
WIRE 0 -352 0 -384
WIRE -208 -336 -208 -368
WIRE 144 -336 144 -384
WIRE 144 -240 144 -256
WIRE -880 -192 -880 -288
WIRE -688 -192 -688 -368
FLAG -880 -192 0
FLAG -688 -192 0
FLAG 144 -240 0
FLAG -208 -336 0
FLAG -848 -448 PWM
FLAG 144 -384 24VAC
FLAG -336 -368 Vg
FLAG 0 -352 0
FLAG -208 -528 Vtriac
SYMBOL voltage -880 -384 R0
WINDOW 123 0 0 Left 0
WINDOW 39 0 0 Left 0
SYMATTR InstName V3
SYMATTR Value PULSE(0 5 0.00 0.0001 0.0001 0.04 0.08)
SYMBOL res -720 -464 R90
WINDOW 0 0 56 VBottom 2
WINDOW 3 32 56 VTop 2
SYMATTR InstName R3
SYMATTR Value 220
SYMATTR SpiceLine pwr=0.25
SYMBOL voltage 144 -352 R0
WINDOW 123 0 0 Left 0
WINDOW 39 0 0 Left 0
SYMATTR InstName V4
SYMATTR Value SINE(0 24 50)
SYMBOL res -384 -544 R0
SYMATTR InstName R1
SYMATTR Value 330
SYMATTR SpiceLine pwr=0.25
SYMBOL OptoElec\\Led_Triac -560 -432 R0
WINDOW 38 32 112 Center 2
WINDOW 0 32 -64 Center 2
SYMATTR SpiceModel MOC3021
SYMATTR InstName U3
SYMBOL Robertugo\\triac_st -240 -432 R0
WINDOW 0 48 0 Left 2
WINDOW 38 70 32 Left 2
SYMATTR InstName U1
SYMATTR SpiceModel TLC226A
SYMBOL ind2 128 -416 M180
WINDOW 0 36 80 Left 2
WINDOW 3 36 40 Left 2
SYMATTR InstName L1
SYMATTR Value 194.44m
SYMATTR Type ind
SYMATTR SpiceLine Rser=32.3
SYMBOL res -16 -544 R0
SYMATTR InstName R2
SYMATTR Value 2k4
SYMATTR SpiceLine pwr=0.5
SYMBOL cap -16 -448 R0
SYMATTR InstName C1
SYMATTR Value 100n
SYMATTR SpiceLine V=50
TEXT -912 -168 Left 2 !.tran 0.2
TEXT -80 -488 Left 2 ;1/2 W
TEXT -384 -480 Right 2 ;1/4 W
TEXT 24 -416 Left 2 ;50V
